[General]
cmdenv-express-mode = false
cmdenv-autoflush = true
cmdenv-status-frequency = 1s
cmdenv-log-prefix = "[%c%?-%l] %G:%R %m %z::%u - "
**.cmdenv-log-level = trace

image-path = ../../veins/images

network = veins_hetvnet.simulations.Highway

debug-on-errors = false
print-undisposed = false

sim-time-limit = 70s

**.sctp.**.scalar-recording = false
**.sctp.**.vector-recording = false

**.coreDebug = false
**.routingRecorder.enabled = false

*.playgroundSizeX = 20000m
*.playgroundSizeY = 20000m
*.playgroundSizeZ = 50m

*.veinsManager.moduleType = "veins_hetvnet.simulations.Car"
*.veinsManager.moduleName = "car"
*.veinsManager.launchConfig = xmldoc("heterogeneous.launchd.xml")
*.veinsManager.updateInterval = 0.1s

*.car[*].mobilityType = "VeinsInetMobility"

**.deployer.positionUpdateInterval = 0.001s

**.channelControl.pMax = 10W
**.channelControl.alpha = 1.0
**.channelControl.carrierFrequency = 2100e+6Hz

**.lteNic.phy.channelModel=xmldoc("config_channel.xml")
**.feedbackComputation = xmldoc("config_channel.xml")

**.dynamicCellAssociation = true

**.car[*].masterId = 1
**.car[*].macCellId = 1
**.eNodeB1.macCellId = 1
**.eNodeB1.macNodeId = 1
**.eNodeB2.macCellId = 2
**.eNodeB2.macNodeId = 2 
**.eNodeBCount = 2

**.rbAllocationType = "localized"
**.feedbackType = "ALLBANDS"
**.feedbackGeneratorType = "IDEAL"
**.maxHarqRtx = 3
**.numUe = ${numUEs=10}

**.deployer.ruRange = 50
**.deployer.ruTxPower = "50,50,50;"
**.deployer.antennaCws = "2;" # !!MACRO + RUS (numRus + 1)
**.deployer.numRbDl = 25
**.deployer.numRbUl = 25
**.numBands = 25
**.fbDelay = 1

**.enableHandover = true
**.broadcastMessageInterval = 0.5s

*.eNodeB*.numX2Apps = 1    # one x2App per peering eNodeB
*.eNodeB*.x2App[*].server.localPort = 5000 + ancestorIndex(1) # Server ports (x2App[0]=5000, x2App[1]=5001, ...)
*.eNodeB1.x2App[0].client.connectAddress = "eNodeB2%x2ppp0" 
*.eNodeB2.x2App[0].client.connectAddress = "eNodeB1%x2ppp0" 
**.sctp.nagleEnabled = false         # if true, transmission of small packets will be delayed on the X2
**.sctp.enableHeartbeats = false


*.eNodeB*.d2dCapable = true
*.car[*].d2dCapable = true
**.amcMode = "D2D"

**.usePreconfiguredTxParams = true
**.d2dCqi = ${cqi=7}

*.car[*].numUdpApps = 1

*.car[*].udpApp[0].typename = "org.car2x.veins.subprojects.veins_hetvnet.HetVNetDemoApp"
*.car[*].udpApp[0].localPortLte = 1000
*.car[*].udpApp[0].localPortWlan = 1001
*.car[0].udpApp[0].startTime = uniform(0.01s,0.02s)
*.car[*].udpApp[0].destAddressLte = "224.0.0.10"
*.car[*].udpApp[0].destAddressWlan = "224.0.2.1"

*.car[*].configuratorLte.interfaces = "wlan"
*.car[*].configuratorWlan.interfaces = "wlan0"
*.car[*].configuratorLte.addressBase = "10.0.0.0"
*.car[*].configuratorWlan.addressBase = "2.0.0.0"
*.car[*].configuratorLte.mcastGroups = "224.0.0.10"
*.car[*].configuratorWlan.mcastGroups = "224.0.2.1"

*.car[*].wlan[0].mgmtType = "Ieee80211MgmtAdhoc"
*.car[*].wlan[0].bitrate = 6Mbps
*.car[*].wlan[0].radio.transmitter.power = 20mW

